60
Energy = -1377.632798683
C     2.4525244    0.7272989   -1.7467756 
C     3.7108106    1.4100715   -1.7475904 
C     4.8927639    0.7146860   -1.7520965 
C     4.8927639   -0.7146860   -1.7520965 
C     3.7108106   -1.4100715   -1.7475904 
C     2.4525244   -0.7272989   -1.7467756 
H     3.7097028    2.5021376   -1.7450446 
H     5.8431173    1.2503995   -1.7532377 
H     5.8431173   -1.2503995   -1.7532377 
H     3.7097028   -2.5021376   -1.7450446 
C     1.2343325   -1.4085550   -1.7473113 
C     0.0000000   -0.7282366   -1.7456088 
C     0.0000000    0.7282366   -1.7456088 
C     1.2343325    1.4085550   -1.7473113 
H     1.2349386   -2.5016852   -1.7482463 
H     1.2349386    2.5016852   -1.7482463 
C    -1.2343325   -1.4085550   -1.7473113 
C    -2.4525244   -0.7272989   -1.7467756 
C    -2.4525244    0.7272989   -1.7467756 
C    -1.2343325    1.4085550   -1.7473113 
H    -1.2349386   -2.5016852   -1.7482463 
H    -1.2349386    2.5016852   -1.7482463 
C    -3.7108106   -1.4100715   -1.7475904 
C    -4.8927639   -0.7146860   -1.7520965 
C    -4.8927639    0.7146860   -1.7520965 
C    -3.7108106    1.4100715   -1.7475904 
H    -3.7097028   -2.5021376   -1.7450446 
H    -5.8431173   -1.2503995   -1.7532377 
H    -5.8431173    1.2503995   -1.7532377 
H    -3.7097028    2.5021376   -1.7450446 
C     2.4525244    0.7272989    1.7467756 
C     3.7108106    1.4100715    1.7475904 
C     4.8927639    0.7146860    1.7520965 
C     4.8927639   -0.7146860    1.7520965 
C     3.7108106   -1.4100715    1.7475904 
C     2.4525244   -0.7272989    1.7467756 
H     3.7097028    2.5021376    1.7450446 
H     5.8431173    1.2503995    1.7532377 
H     5.8431173   -1.2503995    1.7532377 
H     3.7097028   -2.5021376    1.7450446 
C     1.2343325   -1.4085550    1.7473113 
C     0.0000000   -0.7282366    1.7456088 
C     0.0000000    0.7282366    1.7456088 
C     1.2343325    1.4085550    1.7473113 
H     1.2349386   -2.5016852    1.7482463 
H     1.2349386    2.5016852    1.7482463 
C    -1.2343325   -1.4085550    1.7473113 
C    -2.4525244   -0.7272989    1.7467756 
C    -2.4525244    0.7272989    1.7467756 
C    -1.2343325    1.4085550    1.7473113 
H    -1.2349386   -2.5016852    1.7482463 
H    -1.2349386    2.5016852    1.7482463 
C    -3.7108106   -1.4100715    1.7475904 
C    -4.8927639   -0.7146860    1.7520965 
C    -4.8927639    0.7146860    1.7520965 
C    -3.7108106    1.4100715    1.7475904 
H    -3.7097028   -2.5021376    1.7450446 
H    -5.8431173   -1.2503995    1.7532377 
H    -5.8431173    1.2503995    1.7532377 
H    -3.7097028    2.5021376    1.7450446 
