48
Energy = -3049.977666481
C     1.2356851    0.7268872   -2.2492765 
C     2.4924910    1.4060741   -2.2499826 
C     3.6776829    0.7087625   -2.2507810 
C     3.6776829   -0.7087625   -2.2507810 
C     2.4924910   -1.4060741   -2.2499826 
C     1.2356851   -0.7268872   -2.2492765 
C     0.0000000   -1.3921994   -2.2488625 
C    -1.2356851   -0.7268872   -2.2492765 
C    -1.2356851    0.7268872   -2.2492765 
C     0.0000000    1.3921994   -2.2488625 
C    -2.4924910   -1.4060741   -2.2499826 
C    -3.6776829   -0.7087625   -2.2507810 
C    -3.6776829    0.7087625   -2.2507810 
C    -2.4924910    1.4060741   -2.2499826 
F    -2.5598486   -2.7468729   -2.2497502 
F    -4.8547347   -1.3505503   -2.2518537 
F    -4.8547347    1.3505503   -2.2518537 
F    -2.5598486    2.7468729   -2.2497502 
F    -0.0000000    2.7376988   -2.2485854 
F    -0.0000000   -2.7376988   -2.2485854 
F     2.5598486   -2.7468729   -2.2497502 
F     2.5598486    2.7468729   -2.2497502 
F     4.8547347    1.3505503   -2.2518537 
F     4.8547347   -1.3505503   -2.2518537 
C     1.2356851    0.7268872    2.2492765 
C     2.4924910    1.4060741    2.2499826 
C     3.6776829    0.7087625    2.2507810 
C     3.6776829   -0.7087625    2.2507810 
C     2.4924910   -1.4060741    2.2499826 
C     1.2356851   -0.7268872    2.2492765 
C     0.0000000   -1.3921994    2.2488625 
C    -1.2356851   -0.7268872    2.2492765 
C    -1.2356851    0.7268872    2.2492765 
C     0.0000000    1.3921994    2.2488625 
C    -2.4924910   -1.4060741    2.2499826 
C    -3.6776829   -0.7087625    2.2507810 
C    -3.6776829    0.7087625    2.2507810 
C    -2.4924910    1.4060741    2.2499826 
F    -2.5598486   -2.7468729    2.2497502 
F    -4.8547347   -1.3505503    2.2518537 
F    -4.8547347    1.3505503    2.2518537 
F    -2.5598486    2.7468729    2.2497502 
F    -0.0000000    2.7376988    2.2485854 
F    -0.0000000   -2.7376988    2.2485854 
F     2.5598486   -2.7468729    2.2497502 
F     2.5598486    2.7468729    2.2497502 
F     4.8547347    1.3505503    2.2518537 
F     4.8547347   -1.3505503    2.2518537 
