64
Energy = -1529.218711071
C    -1.2491494    0.7365498   -2.2499879 
C    -0.0000000    1.4388496   -2.2499705 
C    -0.0000000    2.8778492   -2.2499385 
C    -1.2335220    3.5776478   -2.2499247 
C    -2.4264771    2.8852434   -2.2499418 
C    -2.4306896    1.4796442   -2.2499730 
C    -1.2491494   -0.7365498   -2.2499879 
C    -0.0000000   -1.4388496   -2.2499705 
C    -0.0000000   -2.8778492   -2.2499385 
C    -1.2335220   -3.5776478   -2.2499247 
C    -2.4264771   -2.8852434   -2.2499418 
C    -2.4306896   -1.4796442   -2.2499730 
H    -1.2202346    4.6691464   -2.2499004 
H    -3.3753337    3.4236193   -2.2499311 
H    -3.3939301    0.9713214   -2.2499856 
H    -1.2202346   -4.6691464   -2.2499004 
H    -3.3753337   -3.4236193   -2.2499311 
H    -3.3939301   -0.9713214   -2.2499856 
C     1.2335220    3.5776478   -2.2499247 
C     2.4264771    2.8852434   -2.2499418 
H     3.3753337    3.4236193   -2.2499311 
C     2.4306896    1.4796442   -2.2499730 
H     3.3939301    0.9713214   -2.2499856 
C     1.2491494    0.7365498   -2.2499879 
H     1.2202346    4.6691464   -2.2499004 
C     1.2491494   -0.7365498   -2.2499879 
C     2.4306896   -1.4796442   -2.2499730 
H     3.3939301   -0.9713214   -2.2499856 
C     2.4264771   -2.8852434   -2.2499418 
H     3.3753337   -3.4236193   -2.2499311 
C     1.2335220   -3.5776478   -2.2499247 
H     1.2202346   -4.6691464   -2.2499004 
C    -1.2491494    0.7365498    2.2499879 
C    -0.0000000    1.4388496    2.2499705 
C    -0.0000000    2.8778492    2.2499385 
C    -1.2335220    3.5776478    2.2499247 
C    -2.4264771    2.8852434    2.2499418 
C    -2.4306896    1.4796442    2.2499730 
C    -1.2491494   -0.7365498    2.2499879 
C    -0.0000000   -1.4388496    2.2499705 
C    -0.0000000   -2.8778492    2.2499385 
C    -1.2335220   -3.5776478    2.2499247 
C    -2.4264771   -2.8852434    2.2499418 
C    -2.4306896   -1.4796442    2.2499730 
H    -1.2202346    4.6691464    2.2499004 
H    -3.3753337    3.4236193    2.2499311 
H    -3.3939301    0.9713214    2.2499856 
H    -1.2202346   -4.6691464    2.2499004 
H    -3.3753337   -3.4236193    2.2499311 
H    -3.3939301   -0.9713214    2.2499856 
C     1.2335220    3.5776478    2.2499247 
C     2.4264771    2.8852434    2.2499418 
H     3.3753337    3.4236193    2.2499311 
C     2.4306896    1.4796442    2.2499730 
H     3.3939301    0.9713214    2.2499856 
C     1.2491494    0.7365498    2.2499879 
H     1.2202346    4.6691464    2.2499004 
C     1.2491494   -0.7365498    2.2499879 
C     2.4306896   -1.4796442    2.2499730 
H     3.3939301   -0.9713214    2.2499856 
C     2.4264771   -2.8852434    2.2499418 
H     3.3753337   -3.4236193    2.2499311 
C     1.2335220   -3.5776478    2.2499247 
H     1.2202346   -4.6691464    2.2499004 
