60
Energy = -1377.648000162
C     2.4523148    0.7272989   -1.9967903 
C     3.7106010    1.4100715   -1.9976152 
C     4.8925543    0.7146859   -2.0021201 
C     4.8925543   -0.7146859   -2.0021201 
C     3.7106010   -1.4100715   -1.9976152 
C     2.4523148   -0.7272989   -1.9967903 
H     3.7094933    2.5021376   -1.9950780 
H     5.8429077    1.2503994   -2.0032690 
H     5.8429077   -1.2503994   -2.0032690 
H     3.7094933   -2.5021376   -1.9950780 
C     1.2341229   -1.4085550   -1.9973047 
C     0.0000000   -0.7282366   -1.9956030 
C     0.0000000    0.7282366   -1.9956030 
C     1.2341229    1.4085550   -1.9973047 
H     1.2347290   -2.5016852   -1.9982310 
H     1.2347290    2.5016852   -1.9982310 
C    -1.2341229   -1.4085550   -1.9973047 
C    -2.4523148   -0.7272989   -1.9967903 
C    -2.4523148    0.7272989   -1.9967903 
C    -1.2341229    1.4085550   -1.9973047 
H    -1.2347290   -2.5016852   -1.9982310 
H    -1.2347290    2.5016852   -1.9982310 
C    -3.7106010   -1.4100715   -1.9976152 
C    -4.8925543   -0.7146859   -2.0021201 
C    -4.8925543    0.7146859   -2.0021201 
C    -3.7106010    1.4100715   -1.9976152 
H    -3.7094933   -2.5021376   -1.9950780 
H    -5.8429077   -1.2503994   -2.0032690 
H    -5.8429077    1.2503994   -2.0032690 
H    -3.7094933    2.5021376   -1.9950780 
C     2.4523148    0.7272989    1.9967903 
C     3.7106010    1.4100715    1.9976152 
C     4.8925543    0.7146859    2.0021201 
C     4.8925543   -0.7146859    2.0021201 
C     3.7106010   -1.4100715    1.9976152 
C     2.4523148   -0.7272989    1.9967903 
H     3.7094933    2.5021376    1.9950780 
H     5.8429077    1.2503994    2.0032690 
H     5.8429077   -1.2503994    2.0032690 
H     3.7094933   -2.5021376    1.9950780 
C     1.2341229   -1.4085550    1.9973047 
C     0.0000000   -0.7282366    1.9956030 
C     0.0000000    0.7282366    1.9956030 
C     1.2341229    1.4085550    1.9973047 
H     1.2347290   -2.5016852    1.9982310 
H     1.2347290    2.5016852    1.9982310 
C    -1.2341229   -1.4085550    1.9973047 
C    -2.4523148   -0.7272989    1.9967903 
C    -2.4523148    0.7272989    1.9967903 
C    -1.2341229    1.4085550    1.9973047 
H    -1.2347290   -2.5016852    1.9982310 
H    -1.2347290    2.5016852    1.9982310 
C    -3.7106010   -1.4100715    1.9976152 
C    -4.8925543   -0.7146859    2.0021201 
C    -4.8925543    0.7146859    2.0021201 
C    -3.7106010    1.4100715    1.9976152 
H    -3.7094933   -2.5021376    1.9950780 
H    -5.8429077   -1.2503994    2.0032690 
H    -5.8429077    1.2503994    2.0032690 
H    -3.7094933    2.5021376    1.9950780 
