48
Energy = -1072.265943462
C     1.2247438    0.7243188   -1.9994520 
C     2.4791391    1.4077446   -2.0001164 
C     3.6636957    0.7120805   -2.0007970 
C     3.6636957   -0.7120805   -2.0007970 
C     2.4791391   -1.4077446   -2.0001164 
C     1.2247438   -0.7243188   -1.9994520 
H     2.4780489    2.4997912   -2.0001720 
H     4.6134405    1.2488860   -2.0014612 
H     4.6134405   -1.2488860   -2.0014612 
H     2.4780489   -2.4997912   -2.0001720 
C     0.0000000   -1.4059204   -1.9987037 
C    -1.2247438   -0.7243188   -1.9994520 
C    -1.2247438    0.7243188   -1.9994520 
C     0.0000000    1.4059204   -1.9987037 
H     0.0000000   -2.4992250   -1.9985781 
H     0.0000000    2.4992250   -1.9985781 
C    -2.4791391   -1.4077446   -2.0001164 
C    -3.6636957   -0.7120805   -2.0007970 
C    -3.6636957    0.7120805   -2.0007970 
C    -2.4791391    1.4077446   -2.0001164 
H    -2.4780489   -2.4997912   -2.0001720 
H    -4.6134405   -1.2488860   -2.0014612 
H    -4.6134405    1.2488860   -2.0014612 
H    -2.4780489    2.4997912   -2.0001720 
C     1.2247438    0.7243188    1.9994520 
C     2.4791391    1.4077446    2.0001164 
C     3.6636957    0.7120805    2.0007970 
C     3.6636957   -0.7120805    2.0007970 
C     2.4791391   -1.4077446    2.0001164 
C     1.2247438   -0.7243188    1.9994520 
H     2.4780489    2.4997912    2.0001720 
H     4.6134405    1.2488860    2.0014612 
H     4.6134405   -1.2488860    2.0014612 
H     2.4780489   -2.4997912    2.0001720 
C     0.0000000   -1.4059204    1.9987037 
C    -1.2247438   -0.7243188    1.9994520 
C    -1.2247438    0.7243188    1.9994520 
C     0.0000000    1.4059204    1.9987037 
H     0.0000000   -2.4992250    1.9985781 
H     0.0000000    2.4992250    1.9985781 
C    -2.4791391   -1.4077446    2.0001164 
C    -3.6636957   -0.7120805    2.0007970 
C    -3.6636957    0.7120805    2.0007970 
C    -2.4791391    1.4077446    2.0001164 
H    -2.4780489   -2.4997912    2.0001720 
H    -4.6134405   -1.2488860    2.0014612 
H    -4.6134405    1.2488860    2.0014612 
H    -2.4780489    2.4997912    2.0001720 
