48
Energy = -3049.978259966
C     0.7269123   -1.2369997   -1.7492785 
C     1.4061121   -2.4937993   -1.7499863 
C     0.7088123   -3.6789990   -1.7507842 
C    -0.7088123   -3.6789990   -1.7507842 
C    -1.4061121   -2.4937993   -1.7499863 
C    -0.7269123   -1.2369997   -1.7492785 
C    -1.3921871    0.0000000   -1.7488604 
C    -0.7269123    1.2369997   -1.7492785 
C     0.7269123    1.2369997   -1.7492785 
C     1.3921871    0.0000000   -1.7488604 
C    -1.4061121    2.4937993   -1.7499863 
C    -0.7088123    3.6789990   -1.7507842 
C     0.7088123    3.6789990   -1.7507842 
C     1.4061121    2.4937993   -1.7499863 
F    -2.7468867    2.5584993   -1.7497446 
F    -1.3505871    4.8533986   -1.7518491 
F     1.3505871    4.8533986   -1.7518491 
F     2.7468867    2.5584993   -1.7497446 
F     2.7377117    0.0000000   -1.7485899 
F    -2.7377117    0.0000000   -1.7485899 
F    -2.7468867   -2.5584993   -1.7497446 
F     2.7468867   -2.5584993   -1.7497446 
F     1.3505871   -4.8533986   -1.7518491 
F    -1.3505871   -4.8533986   -1.7518491 
C     0.7269123   -1.2369997    1.7492785 
C     1.4061121   -2.4937993    1.7499863 
C     0.7088123   -3.6789990    1.7507842 
C    -0.7088123   -3.6789990    1.7507842 
C    -1.4061121   -2.4937993    1.7499863 
C    -0.7269123   -1.2369997    1.7492785 
C    -1.3921871    0.0000000    1.7488604 
C    -0.7269123    1.2369997    1.7492785 
C     0.7269123    1.2369997    1.7492785 
C     1.3921871    0.0000000    1.7488604 
C    -1.4061121    2.4937993    1.7499863 
C    -0.7088123    3.6789990    1.7507842 
C     0.7088123    3.6789990    1.7507842 
C     1.4061121    2.4937993    1.7499863 
F    -2.7468867    2.5584993    1.7497446 
F    -1.3505871    4.8533986    1.7518491 
F     1.3505871    4.8533986    1.7518491 
F     2.7468867    2.5584993    1.7497446 
F     2.7377117    0.0000000    1.7485899 
F    -2.7377117    0.0000000    1.7485899 
F    -2.7468867   -2.5584993    1.7497446 
F     2.7468867   -2.5584993    1.7497446 
F     1.3505871   -4.8533986    1.7518491 
F    -1.3505871   -4.8533986    1.7518491 
