48
Energy = -3049.981023195
C     1.2358325    0.7268872   -1.9992774 
C     2.4926383    1.4060741   -1.9999843 
C     3.6778303    0.7087625   -2.0007824 
C     3.6778303   -0.7087625   -2.0007824 
C     2.4926383   -1.4060741   -1.9999843 
C     1.2358325   -0.7268872   -1.9992774 
C     0.0000000   -1.3921994   -1.9988616 
C    -1.2358325   -0.7268872   -1.9992774 
C    -1.2358325    0.7268872   -1.9992774 
C     0.0000000    1.3921994   -1.9988616 
C    -2.4926383   -1.4060741   -1.9999843 
C    -3.6778303   -0.7087625   -2.0007824 
C    -3.6778303    0.7087625   -2.0007824 
C    -2.4926383    1.4060741   -1.9999843 
F    -2.5597012   -2.7468729   -1.9997478 
F    -4.8545873   -1.3505503   -2.0018517 
F    -4.8545873    1.3505503   -2.0018517 
F    -2.5597012    2.7468729   -1.9997478 
F    -0.0000000    2.7376988   -1.9985874 
F    -0.0000000   -2.7376988   -1.9985874 
F     2.5597012   -2.7468729   -1.9997478 
F     2.5597012    2.7468729   -1.9997478 
F     4.8545873    1.3505503   -2.0018517 
F     4.8545873   -1.3505503   -2.0018517 
C     1.2358325    0.7268872    1.9992774 
C     2.4926383    1.4060741    1.9999843 
C     3.6778303    0.7087625    2.0007824 
C     3.6778303   -0.7087625    2.0007824 
C     2.4926383   -1.4060741    1.9999843 
C     1.2358325   -0.7268872    1.9992774 
C     0.0000000   -1.3921994    1.9988616 
C    -1.2358325   -0.7268872    1.9992774 
C    -1.2358325    0.7268872    1.9992774 
C     0.0000000    1.3921994    1.9988616 
C    -2.4926383   -1.4060741    1.9999843 
C    -3.6778303   -0.7087625    2.0007824 
C    -3.6778303    0.7087625    2.0007824 
C    -2.4926383    1.4060741    1.9999843 
F    -2.5597012   -2.7468729    1.9997478 
F    -4.8545873   -1.3505503    2.0018517 
F    -4.8545873    1.3505503    2.0018517 
F    -2.5597012    2.7468729    1.9997478 
F    -0.0000000    2.7376988    1.9985874 
F    -0.0000000   -2.7376988    1.9985874 
F     2.5597012   -2.7468729    1.9997478 
F     2.5597012    2.7468729    1.9997478 
F     4.8545873    1.3505503    2.0018517 
F     4.8545873   -1.3505503    2.0018517 
