72
Energy = -1683.019916524
C    -3.6834329    0.7286188   -1.9988602 
C    -4.9436124    1.4108710   -1.9967754 
C    -6.1242364    0.7154834   -1.9965807 
C    -6.1242364   -0.7154834   -1.9965807 
C    -4.9436124   -1.4108710   -1.9967754 
C    -3.6834329   -0.7286188   -1.9988602 
H    -4.9426774    2.5028567   -1.9954395 
H    -7.0750012    1.2504701   -1.9949975 
H    -7.0750012   -1.2504701   -1.9949975 
H    -4.9426774   -2.5028567   -1.9954395 
C    -2.4684491   -1.4100589   -2.0017654 
C    -1.2281841   -0.7304395   -2.0021489 
C    -1.2281841    0.7304395   -2.0021489 
C    -2.4684491    1.4100589   -2.0017654 
H    -2.4693471   -2.5033226   -2.0025153 
H    -2.4693471    2.5033226   -2.0025153 
C     0.0000000   -1.4109266   -2.0026882 
C     1.2281841   -0.7304395   -2.0021489 
C     1.2281841    0.7304395   -2.0021489 
C     0.0000000    1.4109266   -2.0026882 
H     0.0000000   -2.5040193   -2.0026741 
H     0.0000000    2.5040193   -2.0026741 
C     2.4684491   -1.4100589   -2.0017654 
C     3.6834329   -0.7286188   -1.9988602 
C     3.6834329    0.7286188   -1.9988602 
C     2.4684491    1.4100589   -2.0017654 
H     2.4693471   -2.5033226   -2.0025153 
H     2.4693471    2.5033226   -2.0025153 
C     4.9436124   -1.4108710   -1.9967754 
C     6.1242364   -0.7154834   -1.9965807 
C     6.1242364    0.7154834   -1.9965807 
C     4.9436124    1.4108710   -1.9967754 
H     4.9426774   -2.5028567   -1.9954395 
H     7.0750012   -1.2504701   -1.9949975 
H     7.0750012    1.2504701   -1.9949975 
H     4.9426774    2.5028567   -1.9954395 
C    -3.6834329    0.7286188    1.9988602 
C    -4.9436124    1.4108710    1.9967754 
C    -6.1242364    0.7154834    1.9965807 
C    -6.1242364   -0.7154834    1.9965807 
C    -4.9436124   -1.4108710    1.9967754 
C    -3.6834329   -0.7286188    1.9988602 
H    -4.9426774    2.5028567    1.9954395 
H    -7.0750012    1.2504701    1.9949975 
H    -7.0750012   -1.2504701    1.9949975 
H    -4.9426774   -2.5028567    1.9954395 
C    -2.4684491   -1.4100589    2.0017654 
C    -1.2281841   -0.7304395    2.0021489 
C    -1.2281841    0.7304395    2.0021489 
C    -2.4684491    1.4100589    2.0017654 
H    -2.4693471   -2.5033226    2.0025153 
H    -2.4693471    2.5033226    2.0025153 
C     0.0000000   -1.4109266    2.0026882 
C     1.2281841   -0.7304395    2.0021489 
C     1.2281841    0.7304395    2.0021489 
C     0.0000000    1.4109266    2.0026882 
H     0.0000000   -2.5040193    2.0026741 
H     0.0000000    2.5040193    2.0026741 
C     2.4684491   -1.4100589    2.0017654 
C     3.6834329   -0.7286188    1.9988602 
C     3.6834329    0.7286188    1.9988602 
C     2.4684491    1.4100589    2.0017654 
H     2.4693471   -2.5033226    2.0025153 
H     2.4693471    2.5033226    2.0025153 
C     4.9436124   -1.4108710    1.9967754 
C     6.1242364   -0.7154834    1.9965807 
C     6.1242364    0.7154834    1.9965807 
C     4.9436124    1.4108710    1.9967754 
H     4.9426774   -2.5028567    1.9954395 
H     7.0750012   -1.2504701    1.9949975 
H     7.0750012    1.2504701    1.9949975 
H     4.9426774    2.5028567    1.9954395 
