72
Energy = -1683.021822969
C    -3.6833992    0.7286188   -2.4988945 
C    -4.9435787    1.4108710   -2.4968217 
C    -6.1242027    0.7154834   -2.4966378 
C    -6.1242027   -0.7154834   -2.4966378 
C    -4.9435787   -1.4108710   -2.4968217 
C    -3.6833992   -0.7286188   -2.4988945 
H    -4.9426437    2.5028567   -2.4954862 
H    -7.0749675    1.2504701   -2.4950636 
H    -7.0749675   -1.2504701   -2.4950636 
H    -4.9426437   -2.5028567   -2.4954862 
C    -2.4684154   -1.4100589   -2.5017877 
C    -1.2281505   -0.7304395   -2.5021599 
C    -1.2281505    0.7304395   -2.5021599 
C    -2.4684154    1.4100589   -2.5017877 
H    -2.4693134   -2.5033226   -2.5025372 
H    -2.4693134    2.5033226   -2.5025372 
C     0.0000000   -1.4109266   -2.5026876 
C     1.2281505   -0.7304395   -2.5021599 
C     1.2281505    0.7304395   -2.5021599 
C     0.0000000    1.4109266   -2.5026876 
H     0.0000000   -2.5040193   -2.5026731 
H     0.0000000    2.5040193   -2.5026731 
C     2.4684154   -1.4100589   -2.5017877 
C     3.6833992   -0.7286188   -2.4988945 
C     3.6833992    0.7286188   -2.4988945 
C     2.4684154    1.4100589   -2.5017877 
H     2.4693134   -2.5033226   -2.5025372 
H     2.4693134    2.5033226   -2.5025372 
C     4.9435787   -1.4108710   -2.4968217 
C     6.1242027   -0.7154834   -2.4966378 
C     6.1242027    0.7154834   -2.4966378 
C     4.9435787    1.4108710   -2.4968217 
H     4.9426437   -2.5028567   -2.4954862 
H     7.0749675   -1.2504701   -2.4950636 
H     7.0749675    1.2504701   -2.4950636 
H     4.9426437    2.5028567   -2.4954862 
C    -3.6833992    0.7286188    2.4988945 
C    -4.9435787    1.4108710    2.4968217 
C    -6.1242027    0.7154834    2.4966378 
C    -6.1242027   -0.7154834    2.4966378 
C    -4.9435787   -1.4108710    2.4968217 
C    -3.6833992   -0.7286188    2.4988945 
H    -4.9426437    2.5028567    2.4954862 
H    -7.0749675    1.2504701    2.4950636 
H    -7.0749675   -1.2504701    2.4950636 
H    -4.9426437   -2.5028567    2.4954862 
C    -2.4684154   -1.4100589    2.5017877 
C    -1.2281505   -0.7304395    2.5021599 
C    -1.2281505    0.7304395    2.5021599 
C    -2.4684154    1.4100589    2.5017877 
H    -2.4693134   -2.5033226    2.5025372 
H    -2.4693134    2.5033226    2.5025372 
C     0.0000000   -1.4109266    2.5026876 
C     1.2281505   -0.7304395    2.5021599 
C     1.2281505    0.7304395    2.5021599 
C     0.0000000    1.4109266    2.5026876 
H     0.0000000   -2.5040193    2.5026731 
H     0.0000000    2.5040193    2.5026731 
C     2.4684154   -1.4100589    2.5017877 
C     3.6833992   -0.7286188    2.4988945 
C     3.6833992    0.7286188    2.4988945 
C     2.4684154    1.4100589    2.5017877 
H     2.4693134   -2.5033226    2.5025372 
H     2.4693134    2.5033226    2.5025372 
C     4.9435787   -1.4108710    2.4968217 
C     6.1242027   -0.7154834    2.4966378 
C     6.1242027    0.7154834    2.4966378 
C     4.9435787    1.4108710    2.4968217 
H     4.9426437   -2.5028567    2.4954862 
H     7.0749675   -1.2504701    2.4950636 
H     7.0749675    1.2504701    2.4950636 
H     4.9426437    2.5028567    2.4954862 
