48
Energy = -3049.974744926
C     1.2355377    0.7268872   -2.4992758 
C     2.4923436    1.4060742   -2.4999813 
C     3.6775355    0.7087625   -2.5007798 
C     3.6775355   -0.7087625   -2.5007798 
C     2.4923436   -1.4060742   -2.4999813 
C     1.2355377   -0.7268872   -2.4992758 
C     0.0000000   -1.3921994   -2.4988632 
C    -1.2355377   -0.7268872   -2.4992758 
C    -1.2355377    0.7268872   -2.4992758 
C     0.0000000    1.3921994   -2.4988632 
C    -2.4923436   -1.4060742   -2.4999813 
C    -3.6775355   -0.7087625   -2.5007798 
C    -3.6775355    0.7087625   -2.5007798 
C    -2.4923436    1.4060742   -2.4999813 
F    -2.5599959   -2.7468729   -2.4997521 
F    -4.8548820   -1.3505503   -2.5018553 
F    -4.8548820    1.3505503   -2.5018553 
F    -2.5599959    2.7468729   -2.4997521 
F    -0.0000000    2.7376988   -2.4985838 
F    -0.0000000   -2.7376988   -2.4985838 
F     2.5599959   -2.7468729   -2.4997521 
F     2.5599959    2.7468729   -2.4997521 
F     4.8548820    1.3505503   -2.5018553 
F     4.8548820   -1.3505503   -2.5018553 
C     1.2355377    0.7268872    2.4992758 
C     2.4923436    1.4060742    2.4999813 
C     3.6775355    0.7087625    2.5007798 
C     3.6775355   -0.7087625    2.5007798 
C     2.4923436   -1.4060742    2.4999813 
C     1.2355377   -0.7268872    2.4992758 
C     0.0000000   -1.3921994    2.4988632 
C    -1.2355377   -0.7268872    2.4992758 
C    -1.2355377    0.7268872    2.4992758 
C     0.0000000    1.3921994    2.4988632 
C    -2.4923436   -1.4060742    2.4999813 
C    -3.6775355   -0.7087625    2.5007798 
C    -3.6775355    0.7087625    2.5007798 
C    -2.4923436    1.4060742    2.4999813 
F    -2.5599959   -2.7468729    2.4997521 
F    -4.8548820   -1.3505503    2.5018553 
F    -4.8548820    1.3505503    2.5018553 
F    -2.5599959    2.7468729    2.4997521 
F    -0.0000000    2.7376988    2.4985838 
F    -0.0000000   -2.7376988    2.4985838 
F     2.5599959   -2.7468729    2.4997521 
F     2.5599959    2.7468729    2.4997521 
F     4.8548820    1.3505503    2.5018553 
F     4.8548820   -1.3505503    2.5018553 
