64
Energy = -1529.218137101
C    -1.2491501    0.7365498   -2.4999893 
C    -0.0000000    1.4388496   -2.4999736 
C    -0.0000000    2.8778492   -2.4999449 
C    -1.2335226    3.5776478   -2.4999324 
C    -2.4264777    2.8852434   -2.4999478 
C    -2.4306903    1.4796442   -2.4999759 
C    -1.2491501   -0.7365498   -2.4999893 
C    -0.0000000   -1.4388496   -2.4999736 
C    -0.0000000   -2.8778492   -2.4999449 
C    -1.2335226   -3.5776478   -2.4999324 
C    -2.4264777   -2.8852434   -2.4999478 
C    -2.4306903   -1.4796442   -2.4999759 
H    -1.2202353    4.6691464   -2.4999106 
H    -3.3753344    3.4236193   -2.4999382 
H    -3.3939307    0.9713214   -2.4999872 
H    -1.2202353   -4.6691464   -2.4999106 
H    -3.3753344   -3.4236193   -2.4999382 
H    -3.3939307   -0.9713214   -2.4999872 
C     1.2335226    3.5776478   -2.4999324 
C     2.4264777    2.8852434   -2.4999478 
H     3.3753344    3.4236193   -2.4999382 
C     2.4306903    1.4796442   -2.4999759 
H     3.3939307    0.9713214   -2.4999872 
C     1.2491501    0.7365498   -2.4999893 
H     1.2202353    4.6691464   -2.4999106 
C     1.2491501   -0.7365498   -2.4999893 
C     2.4306903   -1.4796442   -2.4999759 
H     3.3939307   -0.9713214   -2.4999872 
C     2.4264777   -2.8852434   -2.4999478 
H     3.3753344   -3.4236193   -2.4999382 
C     1.2335226   -3.5776478   -2.4999324 
H     1.2202353   -4.6691464   -2.4999106 
C    -1.2491501    0.7365498    2.4999893 
C    -0.0000000    1.4388496    2.4999736 
C    -0.0000000    2.8778492    2.4999449 
C    -1.2335226    3.5776478    2.4999324 
C    -2.4264777    2.8852434    2.4999478 
C    -2.4306903    1.4796442    2.4999759 
C    -1.2491501   -0.7365498    2.4999893 
C    -0.0000000   -1.4388496    2.4999736 
C    -0.0000000   -2.8778492    2.4999449 
C    -1.2335226   -3.5776478    2.4999324 
C    -2.4264777   -2.8852434    2.4999478 
C    -2.4306903   -1.4796442    2.4999759 
H    -1.2202353    4.6691464    2.4999106 
H    -3.3753344    3.4236193    2.4999382 
H    -3.3939307    0.9713214    2.4999872 
H    -1.2202353   -4.6691464    2.4999106 
H    -3.3753344   -3.4236193    2.4999382 
H    -3.3939307   -0.9713214    2.4999872 
C     1.2335226    3.5776478    2.4999324 
C     2.4264777    2.8852434    2.4999478 
H     3.3753344    3.4236193    2.4999382 
C     2.4306903    1.4796442    2.4999759 
H     3.3939307    0.9713214    2.4999872 
C     1.2491501    0.7365498    2.4999893 
H     1.2202353    4.6691464    2.4999106 
C     1.2491501   -0.7365498    2.4999893 
C     2.4306903   -1.4796442    2.4999759 
H     3.3939307   -0.9713214    2.4999872 
C     2.4264777   -2.8852434    2.4999478 
H     3.3753344   -3.4236193    2.4999382 
C     1.2335226   -3.5776478    2.4999324 
H     1.2202353   -4.6691464    2.4999106 
