76
Energy = -1967.092522020
N    -2.1244720    0.0000000   -1.9999994 
N    -0.0000000    2.0283547   -1.9999994 
N     2.1244720    0.0000000   -1.9999994 
N    -0.0000000   -2.0283547   -1.9999994 
C    -2.8963699    1.1355206   -1.9999994 
C    -4.2644575    0.7016655   -1.9999994 
C    -4.2644575   -0.7016655   -1.9999994 
C    -2.8963699   -1.1355206   -1.9999994 
C    -2.4128171    2.4449131   -1.9999994 
C    -1.0729527    2.8575637   -1.9999994 
C    -0.6651950    4.2581724   -1.9999994 
C     0.6651950    4.2581724   -1.9999994 
C     1.0729527    2.8575637   -1.9999994 
C     2.4128171    2.4449131   -1.9999994 
C     2.8963699    1.1355206   -1.9999994 
C     4.2644575    0.7016655   -1.9999994 
C     4.2644575   -0.7016655   -1.9999994 
C     2.8963699   -1.1355206   -1.9999994 
C     2.4128171   -2.4449131   -1.9999994 
C     1.0729527   -2.8575637   -1.9999994 
C     0.6651950   -4.2581724   -1.9999994 
C    -0.6651950   -4.2581724   -1.9999994 
C    -1.0729527   -2.8575637   -1.9999994 
C    -2.4128171   -2.4449131   -1.9999994 
H    -1.3697446   -5.1114532   -1.9999994 
H     1.3697446   -5.1114532   -1.9999994 
H     3.1702085   -3.2307341   -1.9999994 
H     5.1197519   -1.3717071   -1.9999994 
H     5.1197519    1.3717071   -1.9999994 
H     3.1702085    3.2307341   -1.9999994 
H     1.3697446    5.1114532   -1.9999994 
H    -1.3697446    5.1114532   -1.9999994 
H    -3.1702085    3.2307341   -1.9999994 
H    -5.1197519    1.3717071   -1.9999994 
H    -3.1702085   -3.2307341   -1.9999994 
H    -5.1197519   -1.3717071   -1.9999994 
H    -1.1026806    0.0000000   -1.9999994 
H     1.1026806    0.0000000   -1.9999994 
N    -2.1244720    0.0000000    1.9999994 
N    -0.0000000    2.0283547    1.9999994 
N     2.1244720    0.0000000    1.9999994 
N    -0.0000000   -2.0283547    1.9999994 
C    -2.8963699    1.1355206    1.9999994 
C    -4.2644575    0.7016655    1.9999994 
C    -4.2644575   -0.7016655    1.9999994 
C    -2.8963699   -1.1355206    1.9999994 
C    -2.4128171    2.4449131    1.9999994 
C    -1.0729527    2.8575637    1.9999994 
C    -0.6651950    4.2581724    1.9999994 
C     0.6651950    4.2581724    1.9999994 
C     1.0729527    2.8575637    1.9999994 
C     2.4128171    2.4449131    1.9999994 
C     2.8963699    1.1355206    1.9999994 
C     4.2644575    0.7016655    1.9999994 
C     4.2644575   -0.7016655    1.9999994 
C     2.8963699   -1.1355206    1.9999994 
C     2.4128171   -2.4449131    1.9999994 
C     1.0729527   -2.8575637    1.9999994 
C     0.6651950   -4.2581724    1.9999994 
C    -0.6651950   -4.2581724    1.9999994 
C    -1.0729527   -2.8575637    1.9999994 
C    -2.4128171   -2.4449131    1.9999994 
H    -1.3697446   -5.1114532    1.9999994 
H     1.3697446   -5.1114532    1.9999994 
H     3.1702085   -3.2307341    1.9999994 
H     5.1197519   -1.3717071    1.9999994 
H     5.1197519    1.3717071    1.9999994 
H     3.1702085    3.2307341    1.9999994 
H     1.3697446    5.1114532    1.9999994 
H    -1.3697446    5.1114532    1.9999994 
H    -3.1702085    3.2307341    1.9999994 
H    -5.1197519    1.3717071    1.9999994 
H    -3.1702085   -3.2307341    1.9999994 
H    -5.1197519   -1.3717071    1.9999994 
H    -1.1026806    0.0000000    1.9999994 
H     1.1026806    0.0000000    1.9999994 
