72
Energy = -1683.022242588
C    -3.6834160    0.7286188   -2.2488793 
C    -4.9435955    1.4108710   -2.2468011 
C    -6.1242195    0.7154834   -2.2466124 
C    -6.1242195   -0.7154834   -2.2466124 
C    -4.9435955   -1.4108710   -2.2468011 
C    -3.6834160   -0.7286188   -2.2488793 
H    -4.9426605    2.5028567   -2.2454655 
H    -7.0749843    1.2504701   -2.2450343 
H    -7.0749843   -1.2504701   -2.2450343 
H    -4.9426605   -2.5028567   -2.2454655 
C    -2.4684323   -1.4100589   -2.2517778 
C    -1.2281673   -0.7304395   -2.2521550 
C    -1.2281673    0.7304395   -2.2521550 
C    -2.4684323    1.4100589   -2.2517778 
H    -2.4693303   -2.5033226   -2.2525275 
H    -2.4693303    2.5033226   -2.2525275 
C     0.0000000   -1.4109266   -2.2526879 
C     1.2281673   -0.7304395   -2.2521550 
C     1.2281673    0.7304395   -2.2521550 
C     0.0000000    1.4109266   -2.2526879 
H     0.0000000   -2.5040193   -2.2526736 
H     0.0000000    2.5040193   -2.2526736 
C     2.4684323   -1.4100589   -2.2517778 
C     3.6834160   -0.7286188   -2.2488793 
C     3.6834160    0.7286188   -2.2488793 
C     2.4684323    1.4100589   -2.2517778 
H     2.4693303   -2.5033226   -2.2525275 
H     2.4693303    2.5033226   -2.2525275 
C     4.9435955   -1.4108710   -2.2468011 
C     6.1242195   -0.7154834   -2.2466124 
C     6.1242195    0.7154834   -2.2466124 
C     4.9435955    1.4108710   -2.2468011 
H     4.9426605   -2.5028567   -2.2454655 
H     7.0749843   -1.2504701   -2.2450343 
H     7.0749843    1.2504701   -2.2450343 
H     4.9426605    2.5028567   -2.2454655 
C    -3.6834160    0.7286188    2.2488793 
C    -4.9435955    1.4108710    2.2468011 
C    -6.1242195    0.7154834    2.2466124 
C    -6.1242195   -0.7154834    2.2466124 
C    -4.9435955   -1.4108710    2.2468011 
C    -3.6834160   -0.7286188    2.2488793 
H    -4.9426605    2.5028567    2.2454655 
H    -7.0749843    1.2504701    2.2450343 
H    -7.0749843   -1.2504701    2.2450343 
H    -4.9426605   -2.5028567    2.2454655 
C    -2.4684323   -1.4100589    2.2517778 
C    -1.2281673   -0.7304395    2.2521550 
C    -1.2281673    0.7304395    2.2521550 
C    -2.4684323    1.4100589    2.2517778 
H    -2.4693303   -2.5033226    2.2525275 
H    -2.4693303    2.5033226    2.2525275 
C     0.0000000   -1.4109266    2.2526879 
C     1.2281673   -0.7304395    2.2521550 
C     1.2281673    0.7304395    2.2521550 
C     0.0000000    1.4109266    2.2526879 
H     0.0000000   -2.5040193    2.2526736 
H     0.0000000    2.5040193    2.2526736 
C     2.4684323   -1.4100589    2.2517778 
C     3.6834160   -0.7286188    2.2488793 
C     3.6834160    0.7286188    2.2488793 
C     2.4684323    1.4100589    2.2517778 
H     2.4693303   -2.5033226    2.2525275 
H     2.4693303    2.5033226    2.2525275 
C     4.9435955   -1.4108710    2.2468011 
C     6.1242195   -0.7154834    2.2466124 
C     6.1242195    0.7154834    2.2466124 
C     4.9435955    1.4108710    2.2468011 
H     4.9426605   -2.5028567    2.2454655 
H     7.0749843   -1.2504701    2.2450343 
H     7.0749843    1.2504701    2.2450343 
H     4.9426605    2.5028567    2.2454655 
