60
Energy = -1377.649286338
C     2.4521053    0.7272989   -2.2468018 
C     3.7103915    1.4100715   -2.2476344 
C     4.8923448    0.7146859   -2.2521385 
C     4.8923448   -0.7146859   -2.2521385 
C     3.7103915   -1.4100715   -2.2476344 
C     2.4521053   -0.7272989   -2.2468018 
H     3.7092837    2.5021376   -2.2451039 
H     5.8426982    1.2503994   -2.2532934 
H     5.8426982   -1.2503994   -2.2532934 
H     3.7092837   -2.5021376   -2.2451039 
C     1.2339133   -1.4085550   -2.2472995 
C     0.0000000   -0.7282366   -2.2455984 
C     0.0000000    0.7282366   -2.2455984 
C     1.2339133    1.4085550   -2.2472995 
H     1.2345195   -2.5016852   -2.2482191 
H     1.2345195    2.5016852   -2.2482191 
C    -1.2339133   -1.4085550   -2.2472995 
C    -2.4521053   -0.7272989   -2.2468018 
C    -2.4521053    0.7272989   -2.2468018 
C    -1.2339133    1.4085550   -2.2472995 
H    -1.2345195   -2.5016852   -2.2482191 
H    -1.2345195    2.5016852   -2.2482191 
C    -3.7103915   -1.4100715   -2.2476344 
C    -4.8923448   -0.7146859   -2.2521385 
C    -4.8923448    0.7146859   -2.2521385 
C    -3.7103915    1.4100715   -2.2476344 
H    -3.7092837   -2.5021376   -2.2451039 
H    -5.8426982   -1.2503994   -2.2532934 
H    -5.8426982    1.2503994   -2.2532934 
H    -3.7092837    2.5021376   -2.2451039 
C     2.4521053    0.7272989    2.2468018 
C     3.7103915    1.4100715    2.2476344 
C     4.8923448    0.7146859    2.2521385 
C     4.8923448   -0.7146859    2.2521385 
C     3.7103915   -1.4100715    2.2476344 
C     2.4521053   -0.7272989    2.2468018 
H     3.7092837    2.5021376    2.2451039 
H     5.8426982    1.2503994    2.2532934 
H     5.8426982   -1.2503994    2.2532934 
H     3.7092837   -2.5021376    2.2451039 
C     1.2339133   -1.4085550    2.2472995 
C     0.0000000   -0.7282366    2.2455984 
C     0.0000000    0.7282366    2.2455984 
C     1.2339133    1.4085550    2.2472995 
H     1.2345195   -2.5016852    2.2482191 
H     1.2345195    2.5016852    2.2482191 
C    -1.2339133   -1.4085550    2.2472995 
C    -2.4521053   -0.7272989    2.2468018 
C    -2.4521053    0.7272989    2.2468018 
C    -1.2339133    1.4085550    2.2472995 
H    -1.2345195   -2.5016852    2.2482191 
H    -1.2345195    2.5016852    2.2482191 
C    -3.7103915   -1.4100715    2.2476344 
C    -4.8923448   -0.7146859    2.2521385 
C    -4.8923448    0.7146859    2.2521385 
C    -3.7103915    1.4100715    2.2476344 
H    -3.7092837   -2.5021376    2.2451039 
H    -5.8426982   -1.2503994    2.2532934 
H    -5.8426982    1.2503994    2.2532934 
H    -3.7092837    2.5021376    2.2451039 
