64
Energy = -1529.216792668
C    -1.2491488    0.7365498   -1.9999861 
C    -0.0000000    1.4388496   -1.9999666 
C    -0.0000000    2.8778492   -1.9999306 
C    -1.2335214    3.5776478   -1.9999151 
C    -2.4264765    2.8852434   -1.9999342 
C    -2.4306890    1.4796442   -1.9999694 
C    -1.2491488   -0.7365498   -1.9999861 
C    -0.0000000   -1.4388496   -1.9999666 
C    -0.0000000   -2.8778492   -1.9999306 
C    -1.2335214   -3.5776478   -1.9999151 
C    -2.4264765   -2.8852434   -1.9999342 
C    -2.4306890   -1.4796442   -1.9999694 
H    -1.2202340    4.6691464   -1.9998877 
H    -3.3753331    3.4236193   -1.9999223 
H    -3.3939294    0.9713214   -1.9999836 
H    -1.2202340   -4.6691464   -1.9998877 
H    -3.3753331   -3.4236193   -1.9999223 
H    -3.3939294   -0.9713214   -1.9999836 
C     1.2335214    3.5776478   -1.9999151 
C     2.4264765    2.8852434   -1.9999342 
H     3.3753331    3.4236193   -1.9999223 
C     2.4306890    1.4796442   -1.9999694 
H     3.3939294    0.9713214   -1.9999836 
C     1.2491488    0.7365498   -1.9999861 
H     1.2202340    4.6691464   -1.9998877 
C     1.2491488   -0.7365498   -1.9999861 
C     2.4306890   -1.4796442   -1.9999694 
H     3.3939294   -0.9713214   -1.9999836 
C     2.4264765   -2.8852434   -1.9999342 
H     3.3753331   -3.4236193   -1.9999223 
C     1.2335214   -3.5776478   -1.9999151 
H     1.2202340   -4.6691464   -1.9998877 
C    -1.2491488    0.7365498    1.9999861 
C    -0.0000000    1.4388496    1.9999666 
C    -0.0000000    2.8778492    1.9999306 
C    -1.2335214    3.5776478    1.9999151 
C    -2.4264765    2.8852434    1.9999342 
C    -2.4306890    1.4796442    1.9999694 
C    -1.2491488   -0.7365498    1.9999861 
C    -0.0000000   -1.4388496    1.9999666 
C    -0.0000000   -2.8778492    1.9999306 
C    -1.2335214   -3.5776478    1.9999151 
C    -2.4264765   -2.8852434    1.9999342 
C    -2.4306890   -1.4796442    1.9999694 
H    -1.2202340    4.6691464    1.9998877 
H    -3.3753331    3.4236193    1.9999223 
H    -3.3939294    0.9713214    1.9999836 
H    -1.2202340   -4.6691464    1.9998877 
H    -3.3753331   -3.4236193    1.9999223 
H    -3.3939294   -0.9713214    1.9999836 
C     1.2335214    3.5776478    1.9999151 
C     2.4264765    2.8852434    1.9999342 
H     3.3753331    3.4236193    1.9999223 
C     2.4306890    1.4796442    1.9999694 
H     3.3939294    0.9713214    1.9999836 
C     1.2491488    0.7365498    1.9999861 
H     1.2202340    4.6691464    1.9998877 
C     1.2491488   -0.7365498    1.9999861 
C     2.4306890   -1.4796442    1.9999694 
H     3.3939294   -0.9713214    1.9999836 
C     2.4264765   -2.8852434    1.9999342 
H     3.3753331   -3.4236193    1.9999223 
C     1.2335214   -3.5776478    1.9999151 
H     1.2202340   -4.6691464    1.9998877 
